<?xml version="1.0" encoding="UTF-8"?>

<routes xmlns:xsi="http://www.w3.org/2001/XMLSchema-instance" xsi:noNamespaceSchemaLocation="http://sumo.dlr.de/xsd/routes_file.xsd">
    <!-- Vehicle Types -->
    <vType id="car" length="5.00" maxSpeed="33.30" color="blue" accel="2.6" decel="4.5" sigma="0.5"/>

    <!-- Routes -->
    <route id="route1" edges="E0 E1"/>
    <route id="route2" edges="E0.48 E2"/>
    <route id="route3" edges="-E1 E2"/>
    <route id="route4" edges="-E2 -E0.48"/>
    <route id="route5" edges="E0.48 -E0"/>
    <route id="route6" edges="-E1 -E0.48"/>
    <route id="route7" edges="E0.48 E1"/>
    <route id="route8" edges="-E2 -E0"/>
    <route id="route9" edges="E1 E0"/>
    <route id="route10" edges="E2 E0.48"/>

    <!-- Trips for Randomized Movement -->
    <trip id="east_to_north" type="car" depart="0.00" from="E0.48" to="E1"/>
    <trip id="east_to_west" type="car" depart="0.00" from="E0.48" to="-E0"/>
    <trip id="north_to_south" type="car" depart="0.00" from="-E1" to="E2"/>
    <trip id="south_to_north" type="car" depart="0.00" from="-E2" to="E1"/>
    <trip id="west_to_south" type="car" depart="0.00" from="E0" to="E2"/>
    <trip id="south_to_west" type="car" depart="0.00" from="-E2" to="-E0.48"/>
    <trip id="north_to_west" type="car" depart="0.00" from="-E1" to="-E0"/>
    <trip id="south_to_east" type="car" depart="0.00" from="-E2" to="-E0.48"/>
    <trip id="north_to_east" type="car" depart="0.00" from="-E1" to="-E0.48"/>

    <!-- Vehicle Flow to Simulate Traffic -->
    <flow id="east_west_flow" type="car" begin="0.00" from="E0.48" to="-E0" end="100.00" number="20"/>
    <flow id="north_south_flow" type="car" begin="0.00" from="-E1" to="E2" end="100.00" number="20"/>
    <flow id="south_north_flow" type="car" begin="0.00" from="-E2" to="E1" end="100.00" number="20"/>
    <flow id="north_west_flow" type="car" begin="0.00" from="-E1" to="-E0" end="100.00" number="15"/>
    <flow id="south_east_flow" type="car" begin="0.00" from="-E2" to="-E0.48" end="100.00" number="15"/>
</routes>









<?xml version="1.0" encoding="UTF-8"?>

<!-- generated on 2025-02-28 06:11:01 by Eclipse SUMO netedit Version 1.22.0
-->

<routes xmlns:xsi="http://www.w3.org/2001/XMLSchema-instance" xsi:noNamespaceSchemaLocation="http://sumo.dlr.de/xsd/routes_file.xsd">
    <!-- VTypes -->
    <vType id="car" length="5.00" maxSpeed="33.30" color="blue" accel="2.6" decel="4.5" sigma="0.5"/>
    <!-- Routes -->
    <route id="route1" edges="E0 E1"/>
    <route id="route2" edges="E0.48 E2"/>
    <route id="route3" edges="-E1 E2"/>
    <route id="route4" edges="-E2 -E0.48"/>
    <route id="route5" edges="E0.48 -E0"/>
    <route id="route7" edges="E0.48 E1"/>
    <!-- Vehicles, persons and containers (sorted by depart) -->
    <trip id="east_to_north" type="car" depart="0.00" from="E0.48" to="E1"/>
    <trip id="east_to_west" type="car" depart="0.00" from="E0.48" to="-E0"/>
    <trip id="north_to_south" type="car" depart="0.00" from="-E1" to="E2"/>
    <trip id="south_to_north" type="car" depart="0.00" from="-E2" to="E1"/>
    <flow id="east_west_flow" type="car" begin="0.00" from="E0.48" to="-E0" end="100.00" number="20"/>
    <flow id="north_south_flow" type="car" begin="0.00" from="-E1" to="E2" end="100.00" number="20"/>
    <flow id="south_north_flow" type="car" begin="0.00" from="-E2" to="E1" end="100.00" number="20"/>
</routes>
